! [_ SMILES_SOURCE="Marvin" _]
!
!**************************************************************************************
!*  Submitted to Combustion and Flame, First in March 2010, revised in July 2010
!*  DETAILED CHEMICAL KINETIC MECHANISM FOR SURROGATES OF ALTERNATIVE JET FUELS
!*  Chitralkumar V. Naik*, Karthik V. Puduppakkam, Abhijit Modak, Ellen Meeks
!*   Reaction Design, San Diego, California
!*  Yang L Wang, Qiyao Feng, Theodore Tsotsis
!*   University of Southern California, Los Angeles, California
!*
!*  MASTER MECHANISM including NOx kinetics in CHEMKIN compatible format
!*
!* ALL RIGHTS RESERVED
!**************************************************************************************
ELEMENTS
H C O N Ar
END
SPECIES
h h2 o o2 oh
h2o n2 co hco co2
ch3 ch4 ho2 h2o2 ch2o
ch3o c2h6 c2h4 c2h5 ch2
ch c2h c2h2 c2h3 ch3oh
ch2oh ch2co hcco c2h5oh pc2h4oh
sc2h4oh ch3co ch2cho ch3cho c3h4-a
c3h4-p c3h6 nc3h7 ic3h7 c3h8
ch3coch3 ch3coch2 c2h5cho c2h5co c2h5o
ch3o2 ch3o2h c2h5o2h c2h3o1-2 ch3co2
c2h4o1-2 c2h4o2h c2h3co c2h3cho c3h5o
nc3h7o ic3h7o ch3coch2o c3h5-a c3h5-s
c3h5-t c3h3 c3h2 ho2cho o2cho
ocho ch2(s) c3h6oh tc3h6oh ic3h5oh
c3h5oh ch2cch2oh ch3chco ch2ch2cho ch3chocho
ch3chcho hoch2o hocho ch2ccho ar
c h2cc hccoh c2o ch3co3
ch3oco hcocj*o hcohco chooco
c4h6 ic4h7 ic4h8 c4h7 c4h8-2
c4h8-1 sc4h9 pc4h9 tc4h9 ic4h9
ic4h10 c4h10 ic4h8oh ic4h7o c4h7o
c4h8oh-1 c4h8oh-2 pc4h9o sc4h9o ic4h9o
tc4h9o c5h9 c5h10-1 c5h10-2 ic5h12
ac5h11 bc5h11 cc5h11 dc5h11 ac5h10
bc5h10 cc5h10 ic5h9 nc5h12 c5h11-1
c5h11-2 c5h11-3 ac5h11o bc5h11o cc5h11o
dc5h11o c5h11o-1 c5h11o-2 c5h11o-3 ic4h7-i1
ic3h5cho tc3h6ocho tc3h6cho ic3h7cho ic4h7oh
ic3h6co ic4h6oh ic3h5co ic3h7co tc3h6ohcho
tc4h8cho nc3h7cho nc3h7co ch2ch2coch3 c2h5coch2
c2h5coch3 ch3chcoch3 c2h3coch3 c3h6cho-3 c3h6cho-2
c2h5chco ic3h5coch3 ic3h5coch2 ac3h4coch3 sc3h5coch2
sc3h5cho sc3h5co ic3h6cho c3h6cho-1 c2h5coc2h5
c2h5coc2h4p c2h5coc2h4s c2h5coc2h3 pc2h4coc2h3 sc2h4coc2h3
ic3h6chcho ic3h6chcoch3 ac3h5chcoch3 ic3h6chcoch2 nc3h7coch3
nc3h7coch2 c3h6coch3-1 c3h6coch3-2 c3h6coch3-3 ic3h7coch3
ic3h7coch2 ic3h6coch3 tc3h6coch3 nc3h7coc2h5 c3h6coc2h5-1
c3h6coc2h5-2 c3h6coc2h5-3 nc3h7coc2h4p nc3h7coc2h4s ic3h7coc2h5
ic3h6coc2h5 tc3h6coc2h5 ic3h7coc2h4p ic3h7coc2h4s ic3h7coc2h3
ic3h6coc2h3 tc3h6coc2h3 ic3h5coc2h5 ac3h4coc2h5 ic3h5coc2h4p
ic3h5coc2h4s nc4h9cho nc4h9co ac3h5cho ac3h5co
c2h3chcho c4h8cho-1 c4h8cho-2 c4h8cho-3 c4h8cho-4
ic6h14 ac6h13 bc6h13 cc6h13 dc6h13
ec6h13 ac6h12 bc6h12 cc6h12 dc6h12
ic6h11 ac6h13o bc6h13o cc6h13o dc6h13o
ec6h13o nc4h9cho-2 nc4h9co-2 c4h8cho1-2 c4h8cho2-2
c4h8cho3-2 c4h8cho4-2 ic4h9cho ic4h9co ic3h6ch2cho
tc3h6ch2cho ic3h7chcho ic5h11cho ic5h11co ac5h10cho
bc5h10cho cc5h10cho dc5h10cho c4h7cho1-4 c4h7co1-4
c4h6cho1-43 c4h6cho1-44 c4h7cho2-1 c4h7co2-1 c4h6cho2-11
nc5h11cho-2 nc5h11co-2 c5h10cho1-2 c5h10cho2-2 c5h10cho3-2
c5h10cho4-2 c5h10cho5-2 ic4h9coch3 ic4h9coch2 ic3h6ch2coch3
ic3h7chcoch3 tc3h6ch2coch3 neoc6h14 fc6h13 gc6h13
hc6h13 neoc6h12 neoc6h11 fc6h13o gc6h13o
hc6h13o tc4h9cho tc4h9co neoc5h11cho neoc5h11co
tc4h9chcho tc4h8ch2cho ic4h7cho ic4h7co ac3h4ch2cho
ic3h5chcho ic5h11cho-b ic5h11co-b ic5h10cho-ba ic5h10cho-bc
ic5h10cho-bd c4h7cho1-2 c4h7co1-2 c4h6cho1-23 c4h6cho1-24
c4h7cho2-2 c4h7co2-2 c4h6cho2-21 c4h6cho2-24 tc4h9coch3
tc4h9coch2 tc4h8coch3 c7h162-4 xc7h15 yc7h15
zc7h15 xc7h14 yc7h14 xc7h13 xc7h15o
yc7h15o zc7h15o nc7h15 oc7h15 pc7h15
qc7h15 oc7h14 pc7h14 pc7h13 nc7h15o
oc7h15o pc7h15o qc7h15o nc6h14 c6h13-1
c6h13-2 c6h13-3 c6h12-1 c6h12-2 c6h12-3
c6h11 c6h13o-1 c6h13o-2 c6h13o-3 nc7h16
c7h15-1 c7h15-2 c7h15-3 c7h15-4 c7h14-1
c7h14-2 c7h14-3 c7h13 c7h15o-1 c7h15o-2
c7h15o-3 c7h15o-4 nc5h11co c5h10cho-1 c5h10cho-2
c5h10cho-3 c5h10cho-4 c5h10cho-5 nc4h9coch3 nc4h9coch2
c4h8coch3-1 c4h8coch3-2 c4h8coch3-3 c4h8coch3-4 c4h7o1-4
c5h9o1-4 c5h9o1-5 c6h11o1-4 c6h11o1-5 c4h71-4
c12h25-1 c11h23-1 c10h21-1 c9h19-1 c8h17-1
c12h24-1 c11h22-1 c8h16-1 c10h20-1 c9h18-1
c12h25-4 c12h25-5 c12h25o-1 c11h23-4 c11h23-5
c11h23o-1 c10h21-4 c10h21-5 c10h21o-1 c9h19-4
c9h19-5 c9h19o-1 c8h17-4 c8h17o-1 c12h25-6
c12h25o-4 c12h25-2 c12h25o-5 c11h23o-4 c11h23-2
c11h23-3 c11h23o-5 c10h21-3 c10h21o-4 c10h21-2
c10h21o-5 c9h19-3 c9h19-2 c9h19o-4 c9h19o-5
c8h17-2 c8h17o-4 c12h25-3 c12h25o-6 c12h24-3
c12h24-4 c12h25o-2 c12h24-5 c11h22-3 c11h22-4
c11h23-6 c11h23o-2 c11h23o-3 c11h22-5 c10h21o-3
c10h20-3 c10h20-4 c10h21o-2 c10h20-5 c9h19o-3
c9h19o-2 c9h18-3 c9h18-4 c8h17-3 c8h17o-2
c8h16-3 c8h16-4 nc3h7chco nc4h9chco c12h25o-3
c12h24-6 c12h24-2 c11h23o-6 c11h22-2 c10h20-2
c9h18-2 c8h17o-3 c8h16-2 c5h9o c5h9oh
c5h10oh-1 c6h12oh-1 c6h11o c6h11oh x13c6h95
x1c6h114 x1c6h115 x1c6h116 c6h11o1-6 nc12h26
nc11h24 nc10h22 nc9h20 nc8h18 nc3h7coc2h3
nc4h9coc2h3 c12h23 c11h21 c10h19 c9h17
c8h15 neoc5h12 neoc5h11 neoc5h11o neoc7h16
ic8h18 ac8h17 bc8h17 cc8h17 dc8h17
ic8h16 jc8h16 ic8h15 ac8h17o bc8h17o
cc8h17o dc8h17o ic6h13cho-b ic6h13co-b ac6h12cho-b
cc6h12cho-b dc6h12cho-b ec6h12cho-b ic6h13cho-d ic6h13co-d
ac6h12cho-d bc6h12cho-d cc6h12cho-d dc6h12cho-d ec6h12cho-d
ic3h7coc3h7-i ic3h7coc3h6-i ic3h7coc3h6-t tc4h9coc2h5 tc4h8coc2h5
tc4h9coc2h4s tc4h9coc2h4p neoc5h11coch3 neoc5h10coch3 tc4h9chcoch3
neoc5h11coch2 neoc6h13cho neoc6h13co fc6h12cho gc6h12cho
hc6h12cho ic4h7coch3 ic4h7coch2 ic3h5chcoch3 ac3h4ch2coch3
xc7h13o-x1 yc7h13o-x1 oc7h13o-n xc7h13o-z pc7h13o-o
oc7h13o-q yc7h13o-x2 neoc6h11-h cc6h11o-b xc7h14oh-y
yc7h14oh-x zc7h14oh-y yc7h14oh-z ic4h7oh-i1 oc7h14oh-p
pc7h14oh-o qc7h14oh-p pc7h14oh-q cc8h16oh-b bc8h16oh-c
cc8h16oh-d dc8h16oh-c c*cc*c*o cj*cc*c*o sc3h5och2
c2h5o2 o2c2h4oh ch3co3h neoc5ketox neoc5kejol
nc5h11cho nc10h21cho nc9h19cho nc8h17cho nc7h15cho
nc6h13cho nc10h21co nc9h19co nc8h17co nc7h15co
nc6h13co c5h11chco c6h13chco c7h15chco c8h17chco
c11h20 c10h18 c9h16 c8h14 c7h12
c6h10 c5h8 choco2j coco
ch2cchch3
!!!!!!!!!! NOx species !!!!!!!!!!!
n
nh nh2 nh3 nnh no
no2 hno cn hcn h2cn
hcno hocn hnco nco n2o
hnc hon hono h2no nccn
ncn hcnh hnoh no3 hono2
ch3no ch3no2 ch3ono2 ch3ono hno2
ch2no2 hcnn
!!!!! PAH species !!!!
!c4h2 h2c4o n-c4h3
!i-c4h3 c*cc#c c*cc*cj i-c4h5
!c6h2 c6h3 l-c6h4 c-c6h4 c6h5oh
!c6h5oj cy13pd cy13pd5j cyc5h5oj c5h5o1_1
!cypdone cyc6h7 x135c6h8 c6h6 c6h5
!linc6h7 a1c2h styr naph c4h
!c5h2 c5h3 c6h n-c6h5 i-c6h5
!l-c6h6 i-c6h7 n-a1c2h2 i-a1c2h2 styr*
!a1c2h* a1c2h- a1(c2h)2 a2-1 a2-2
!naphthyne a2c2ha a2c2hb a2c2ha* a2c2hb*
!a2c2h2 a2(c2h)2 a3-1 a3-4 a3
!a3c2h a3c2h2 a4 p2 p2-
!p2-h a4- a2r5 a2r5- c*cc(c#c)*c
!fulvene fulvenyl hcoh c2 h2cccch
!ch3chcch ch3ch2cch ch3ccch2 c-c5h4oh c-c5h4o
!c6h5ch2 c6h5ch3 c6h5c2h5 c6h5cho c6h5co
!hoc6h4ch3 c6h5ch2oh oc6h4o oc6h4ch3 ch3c6h4ch3
!ch3c6h4ch2 ch3c6h4c2h3 ch3c6h4c2h5 c10h10 c10h9
!c10h7o c10h7ch2 c10h7ch3 indene indenyl
!phnthryl-9 flrnthn c-2*4c6h6o c-c5h7 l-c5h7
!c10h7c2h5 c10h7c2h3 c10h7oh c6h5cco c10h7cch2
!anthracn ch3indene ch3indenyl ch3phnthrn fluoryl
!fluorene h2cccch2 chchcho hcccho hccco
!hc4-p(def)pthn hc4-p(def)pthyl phnthroxy-1 phnthroxy-9 bz(a)ndene
!bz(a)ndnyl phnthrol-1 phnthrol-9 bz(a)phnthrn bz(ghi)fln
!ch3cy24pd ch3cy24pd1 ch3dcy24pd mch c6h9ch3
!c6h7ch3 cyc6h10 cyc6h8 c3h c3h4c
!c2h2oh ch3ccch3 h2ccccch c5h5(l) hoc4h6
!c6h814 c6h4c4h4 c6h5c4h4 indenylch3 c6h5c4h5
!indenech3 a2r5ch2 a2r5ch3 c6h5chc6h5 c6h5ch2c6h5
!pal3* s1al3* a3ch2 al3c2h* a3c2h*
!a2l2a1* s1a4* al3c2h a3r5
END

THERMO ALL
  300.000  1000.000  5000.000
! [_ CAS="12385-13-6" _]
! [_ SMILES="[H]" _]
!
!!!!!!!!!!!!!!!!!!!!!!!!!!!!!!!!!!!!!!!!!!!!!!!!!!!!!!!!!!!!!!!!!!!!!!!!!!!!!!!!
!!!!!!!!! n-alkane LLNL based mechanisms !!!!!!!!!!!!!!!!!!!!!!!!!!!!!!!!!!!!!!!
!!!!!!!!!!!!!!!!!!!!!!!!!!!!!!!!!!!!!!!!!!!!!!!!!!!!!!!!!!!!!!!!!!!!!!!!!!!!!!!!
!
h                 -thermH   1               G     300.0    5000.0  1000.0      1
   2.50104422E0          0.0E0          0.0E0          0.0E0          0.0E0    2
   2.54747466E4 -4.65341317E-1   2.50104422E0          0.0E0          0.0E0    3
          0.0E0          0.0E0   2.54747466E4 -4.65341317E-1                   4
! [_ SMILES="[H][H]" _]
h2                121286H   2               G     300.0    5000.0  1000.0      1
     2.991423E0    7.000644E-4   -5.633829E-8  -9.231578E-12   1.582752E-15    2
     -8.35034E2     -1.35511E0     3.298124E0    8.249442E-4   -8.143015E-7    3
  -9.475434E-11   4.134872E-13    -1.012521E3    -3.294094E0                   4
! [_ SMILES="[O]" _]
o                 120186O   1               G     300.0    5000.0  1000.0      1
      2.54206E0   -2.755062E-5   -3.102803E-9   4.551067E-12  -4.368052E-16    2
      2.92308E4     4.920308E0     2.946429E0   -1.638166E-3    2.421032E-6    3
   -1.602843E-9   3.890696E-13     2.914764E4     2.963995E0                   4
! [_ SMILES="O=O" _]
o2                121386O   2               G     300.0    5000.0  1000.0      1
     3.697578E0    6.135197E-4   -1.258842E-7   1.775281E-11  -1.136435E-15    2
     -1.23393E3     3.189166E0     3.212936E0    1.127486E-3    -5.75615E-7    3
    1.313877E-9  -8.768554E-13    -1.005249E3     6.034738E0                   4
! [_ CAS="3352-57-6" _]
! [_ SMILES="[OH]" _]
oh                  2004H   1O   1          G     300.0    5000.0  1373.0      1
   2.89080142E0  1.03580697E-3 -2.73888804E-7 3.14233602E-11-1.28582885E-15    2
   3.68169875E3   5.55206679E0   3.51661128E0 -2.17634829E-4  6.28785743E-7    3
-2.42056538E-10 2.72367648E-14   3.44025283E3   2.11149893E0                   4
! [_ SMILES="O" _]
h2o               -20387H   2O   1          G     300.0    5000.0  1000.0      1
     2.672146E0    3.056293E-3    -8.73026E-7   1.200996E-10  -6.391618E-15    2
    -2.989921E4     6.862817E0     3.386842E0    3.474982E-3   -6.354696E-6    3
    6.968581E-9  -2.506588E-12    -3.020811E4     2.590233E0                   4
! [_ CAS="7727-37-9" _]
! [_ SMILES="N#N" _]
n2                121286N   2               G     300.0    5000.0  1000.0      1
      2.92664E0    1.487977E-3   -5.684761E-7   1.009704E-10  -6.753351E-15    2
    -9.227977E2     5.980528E0     3.298677E0     1.40824E-3   -3.963222E-6    3
    5.641515E-9  -2.444855E-12      -1.0209E3     3.950372E0                   4
! [_ CAS="630-08-0" _]
! [_ SMILES="[C]=O" _]
co                121286O   1C   1          G     300.0    5000.0  1000.0      1
     3.025078E0    1.442689E-3   -5.630828E-7   1.018581E-10  -6.910952E-15    2
    -1.426835E4     6.108218E0     3.262452E0    1.511941E-3   -3.881755E-6    3
    5.581944E-9  -2.474951E-12    -1.431054E4     4.848897E0                   4
! [_ SMILES="[CH]=O" _]
hco               121286H   1O   1C   1     G     300.0    5000.0  1000.0      1
     3.557271E0    3.345573E-3   -1.335006E-6   2.470573E-10  -1.713851E-14    2
     3.916324E3     5.552299E0      2.89833E0    6.199147E-3   -9.623084E-6    3
    1.089825E-8  -4.574885E-12     4.159922E3     8.983614E0                   4
! [_ SMILES="O=C=O" _]
co2               121286O   2C   1          G     300.0    5000.0  1000.0      1
     4.453623E0    3.140169E-3   -1.278411E-6   2.393997E-10  -1.669033E-14    2
    -4.896696E4   -9.553959E-1     2.275725E0    9.922072E-3   -1.040911E-5    3
    6.866687E-9   -2.11728E-12    -4.837314E4     1.018849E1                   4
! [_ CAS="2229-07-4" _]
! [_ SMILES="[CH3]" _]
ch3               121286H   3C   1          G     300.0    5000.0  1000.0      1
     2.844052E0    6.137974E-3   -2.230345E-6   3.785161E-10  -2.452159E-14    2
     1.643781E4     5.452697E0     2.430443E0     1.11241E-2    -1.68022E-5    3
    1.621829E-8  -5.864953E-12     1.642378E4     6.789794E0                   4
! [_ CAS="74-82-8" _]
! [_ SMILES="C" _]
ch4               121286H   4C   1          G     300.0    5000.0  1000.0      1
     1.683479E0    1.023724E-2   -3.875129E-6   6.785585E-10  -4.503423E-14    2
    -1.008079E4     9.623395E0    7.787415E-1    1.747668E-2   -2.783409E-5    3
    3.049708E-8  -1.223931E-11    -9.825229E3     1.372219E1                   4
! [_ CAS="3170-83-0" _]
! [_ SMILES="[O]O" _]
ho2                 2004H   1O   2          G     300.0    5000.0  1426.0      1
   4.73847074E0  1.60455274E-3 -5.79128791E-7 9.32005029E-11-5.54436074E-15    2
    -2.942962E2 -5.34138593E-1    3.3258373E0  2.75201316E-3   1.1747616E-6    3
 -2.08439503E-9 6.04923316E-13   3.89351744E2   7.77951112E0                   4
! [_ SMILES="OO" _]
h2o2              120186H   2O   2          G     300.0    5000.0  1000.0      1
     4.573167E0    4.336136E-3   -1.474689E-6   2.348904E-10  -1.431654E-14    2
    -1.800696E4     5.01137E-1     3.388754E0    6.569226E-3   -1.485013E-7    3
   -4.625806E-9   2.471515E-12    -1.766315E4     6.785363E0                   4
! [_ CAS="50-00-0" _]
! [_ SMILES="C=O" _]
ch2o              121286H   2O   1C   1     G     300.0    5000.0  1000.0      1
     2.995606E0    6.681321E-3   -2.628955E-6   4.737153E-10  -3.212517E-14    2
    -1.532037E4     6.912572E0     1.652731E0    1.263144E-2   -1.888168E-5    3
    2.050031E-8  -8.413237E-12     -1.48654E4     1.378482E1                   4
! [_ SMILES="C[O]" _]
ch3o              121686H   3O   1C   1     G     300.0    3000.0  1000.0      1
       3.7708E0    7.871497E-3   -2.656384E-6   3.944431E-10  -2.112616E-14    2
     1.278325E2     2.929575E0     2.106204E0    7.216595E-3    5.338472E-6    3
   -7.377636E-9   2.075611E-12     9.786011E2     1.315218E1                   4
! [_ CAS="74-84-0" _]
! [_ SMILES="CC" _]
c2h6              -thermH   6C   2          G     300.0    5000.0  1384.0      1
   6.10683385E0  1.29236361E-2 -4.42527196E-6 6.87391726E-10-3.98901732E-14    2
  -1.37500014E4   -1.3008125E1 -2.52854344E-2  2.40764754E-2 -1.11893472E-5    3
  2.08340901E-9-5.29868616E-14  -1.12345534E4    2.1164875E1                   4
! [_ SMILES="C=C" _]
c2h4              121286H   4C   2          G     300.0    5000.0  1000.0      1
     3.528419E0    1.148518E-2   -4.418385E-6   7.844601E-10  -5.266848E-14    2
     4.428289E3     2.230389E0    -8.61488E-1    2.796163E-2   -3.388677E-5    3
    2.785152E-8  -9.737879E-12     5.573046E3     2.421149E1                   4
! [_ CAS="2025-56-1" _]
! [_ SMILES="[CH2]C" _]
c2h5              -12387H   5C   2          G     300.0    5000.0  1000.0      1
      7.19048E0    6.484077E-3   -6.428065E-7  -2.347879E-10   3.880877E-14    2
     1.067455E4    -1.478089E1     2.690702E0    8.719133E-3    4.419839E-6    3
   9.338703E-10  -3.927773E-12      1.28704E4      1.21382E1                   4
! [_ CAS="2465-56-7" _]
! [_ EXCITED_STATE="Triplet" _]
! [_ SMILES="[3CH2]" _]
ch2               120186H   2C   1          G     250.0    4000.0  1000.0      1
     3.636408E0    1.933057E-3   -1.687016E-7  -1.009899E-10   1.808256E-14    2
     4.534134E4     2.156561E0     3.762237E0    1.159819E-3    2.489585E-7    3
   8.800836E-10  -7.332435E-13     4.536791E4     1.712578E0                   4
! [_ CAS="3315-37-5" _]
! [_ SMILES="[CH]" _]
ch                121286H   1C   1          G     300.0    5000.0  1000.0      1
     2.196223E0    2.340381E-3   -7.058201E-7   9.007582E-11   -3.85504E-15    2
     7.086723E4     9.178373E0     3.200202E0    2.072876E-3   -5.134431E-6    3
     5.73389E-9  -1.955533E-12     7.045259E4     3.331588E0                   4
! [_ SMILES="[C]#C" _]
c2h               -81193H   1C   2          G     300.0    4000.0  1000.0      1
     3.986367E0    3.143123E-3   -1.267243E-6   2.924363E-10   -2.71632E-14    2
     6.655884E4     1.191063E0     2.737704E0    8.048446E-3    -9.24431E-6    3
    6.525259E-9   -1.93958E-12     6.683813E4      7.30022E0                   4
! [_ CAS="74-86-2" _]
! [_ SMILES="C#C" _]
c2h2              121386H   2C   2          G     300.0    5000.0  1000.0      1
      4.43677E0    5.376039E-3   -1.912817E-6   3.286379E-10   -2.15671E-14    2
     2.566766E4    -2.800338E0     2.013562E0    1.519045E-2   -1.616319E-5    3
    9.078992E-9  -1.912746E-12     2.612444E4     8.805378E0                   4
! [_ SMILES="[CH]=C" _]
c2h3              -12787H   3C   2          G     300.0    5000.0  1000.0      1
     5.933468E0    4.017746E-3    -3.96674E-7  -1.441267E-10   2.378644E-14    2
     3.185435E4    -8.530313E0     2.459276E0    7.371476E-3    2.109873E-6    3
   -1.321642E-9  -1.184784E-12     3.335225E4      1.15562E1                   4
! [_ SMILES="CO" _]
ch3oh             121686H   4O   1C   1     G     300.0    5000.0  1000.0      1
     4.029061E0    9.376593E-3   -3.050254E-6   4.358793E-10  -2.224723E-14    2
    -2.615791E4     2.378196E0     2.660115E0    7.341508E-3    7.170051E-6    3
   -8.793194E-9    2.39057E-12    -2.535348E4     1.123263E1                   4
! [_ CAS="2597-43-5" _]
! [_ SMILES="[CH2]O" _]
ch2oh             120186H   3O   1C   1     G     250.0    4000.0  1000.0      1
      6.32752E0    3.608271E-3   -3.201547E-7   -1.93875E-10   3.509705E-14    2
    -4.474509E3    -8.329366E0     2.862628E0    1.001527E-2   -5.285436E-7    3
    -5.13854E-9   2.246041E-12    -3.349679E3     1.039794E1                   4
! [_ CAS="463-51-4" _]
! [_ SMILES="C=C=O" _]
ch2co             121686H   2O   1C   2     G     300.0    5000.0  1000.0      1
     6.038817E0     5.80484E-3   -1.920954E-6   2.794485E-10  -1.458868E-14    2
    -8.583402E3    -7.657581E0     2.974971E0    1.211871E-2   -2.345046E-6    3
   -6.466685E-9   3.905649E-12    -7.632637E3     8.673553E0                   4
! [_ CAS="51095-15-9" _]
! [_ SMILES="[O]C#C" _]
hcco              -32387H   1O   1C   2     G     300.0    4000.0  1000.0      1
     6.758073E0      2.0004E-3   -2.027607E-7  -1.041132E-10   1.965165E-14    2
     1.901513E4    -9.071262E0     5.047965E0    4.453478E-3    2.268283E-7    3
   -1.482095E-9   2.250742E-13     1.965892E4    4.818439E-1                   4
! [_ CAS="64-17-5" _]
! [_ SMILES="CCO" _]
c2h5oh            -thermH   6O   1C   2     G     300.0    5000.0  1391.0      1
   7.95264841E0  1.31574144E-2 -4.43693359E-6  6.8220116E-10-3.93096335E-14    2
  -3.23602958E4  -1.76537972E1  4.23149045E-1  2.92858167E-2 -1.73845099E-5    3
  5.33639892E-9-6.74917252E-13  -2.95683054E4   2.33538763E1                   4
! [_ SMILES="[CH2]CO" _]
pc2h4oh           -thermH   5O   1C   2     G     300.0    5000.0  1391.0      1
   7.52241939E0  1.10492715E-2 -3.72576465E-6 5.72827397E-10-3.30061759E-14    2
   -7.2933359E3  -1.24958732E1   1.17714711E0  2.48115685E-2 -1.50299503E-5    3
  4.79006785E-9-6.40994211E-13  -4.95369043E3   2.20081586E1                   4
! [_ SMILES="C[CH]O" _]
sc2h4oh           -thermH   5O   1C   2     G     300.0    5000.0  1392.0      1
   7.83524517E0  1.08808198E-2 -3.68694127E-6 5.68601361E-10-3.28288951E-14    2
  -1.07534311E4  -1.53495702E1   1.91496477E0  2.45693145E-2 -1.63075399E-5    3
  6.12282361E-9-1.00784363E-12  -8.62161551E3   1.65987309E1                   4
! [_ SMILES="C[C]=O" _]
ch3co             120186H   3O   1C   2     G     300.0    5000.0  1000.0      1
     5.612279E0    8.449886E-3   -2.854147E-6   4.238376E-10  -2.268404E-14    2
    -5.187863E3    -3.274949E0     3.125278E0     9.77822E-3    4.521448E-6    3
   -9.009462E-9   3.193718E-12    -4.108508E3     1.122885E1                   4
! [_ CAS="4400-01-5" _]
! [_ SMILES="[CH2]C=O" _]
ch2cho            110393H   3O   1C   2     G     300.0    5000.0  1000.0      1
      5.97567E0    8.130591E-3   -2.743624E-6   4.070304E-10  -2.176017E-14    2
     4.903218E2    -5.045251E0     3.409062E0    1.073857E-2    1.891492E-6    3
   -7.158583E-9   2.867385E-12     1.521477E3      9.55829E0                   4
! [_ CAS="75-07-0" _]
! [_ SMILES="CC=O" _]
ch3cho            120186H   4O   1C   2     G     300.0    5000.0  1000.0      1
      5.86865E0    1.079424E-2    -3.64553E-6   5.412912E-10  -2.896844E-14    2
    -2.264569E4    -6.012946E0     2.505695E0    1.336991E-2    4.671953E-6    3
    -1.12814E-8   4.263566E-12    -2.124589E4     1.335089E1                   4
! [_ CAS="463-49-0" _]
! [_ SMILES="C=C=C" _]
c3h4-a            101993H   4C   3          G     300.0    4000.0  1400.0      1
     9.776256E0    5.302138E-3   -3.701118E-7  -3.026386E-10   5.089581E-14    2
     1.954972E4    -3.077061E1     2.539831E0    1.633437E-2    -1.76495E-6    3
   -4.647365E-9   1.729131E-12     2.251243E4     9.935702E0                   4
! [_ CAS="74-99-7" _]
! [_ SMILES="CC#C" _]
c3h4-p            101993H   4C   3          G     300.0    4000.0  1400.0      1
     9.768102E0    5.219151E-3    -3.75314E-7  -2.992191E-10   5.107878E-14    2
     1.860277E4    -3.020678E1      3.02973E0    1.498961E-2     -1.3985E-6    3
   -3.969619E-9   1.388217E-12     2.148408E4     8.004594E0                   4
! [_ SMILES="CC=C" _]
c3h6              -thermH   6C   3          G     300.0    5000.0  1388.0      1
   8.01595958E0  1.37023634E-2 -4.66249733E-6 7.21254402E-10-4.17370126E-14    2
  -1.87821271E3  -2.00160668E1  3.94615444E-1  2.89107662E-2 -1.54886808E-5    3
  3.88814209E-9-3.37890352E-13   1.06688164E3   2.19003736E1                   4
! [_ SMILES="[CH2]CC" _]
nc3h7             120186H   7C   3          G     300.0    5000.0  1000.0      1
     7.978291E0    1.576113E-2   -5.173243E-6   7.443892E-10  -3.824978E-14    2
     7.579402E3    -1.935611E1     1.922537E0    2.478927E-2    1.810249E-6    3
   -1.783266E-8   8.582996E-12     9.713281E3     1.399271E1                   4
! [_ SMILES="C[CH]C" _]
ic3h7             120186H   7C   3          G     300.0    5000.0  1000.0      1
     8.063369E0    1.574488E-2   -5.182392E-6   7.477245E-10  -3.854422E-14    2
     5.313871E3    -2.192647E1       1.7133E0    2.542616E-2    1.580808E-6    3
   -1.821286E-8    8.82771E-12     7.535809E3     1.297901E1                   4
! [_ CAS="74-98-6" _]
! [_ SMILES="CCC" _]
c3h8              120186H   8C   3          G     300.0    5000.0  1000.0      1
     7.525217E0    1.889034E-2   -6.283924E-6   9.179373E-10   -4.81241E-14    2
    -1.646455E4     -1.78439E1    8.969208E-1    2.668986E-2    5.431425E-6    3
   -2.126001E-8    9.24333E-12    -1.395492E4     1.935533E1                   4
! [_ SMILES="CC(C)=O" _]
ch3coch3          -thermH   6O   1C   3     G     300.0    5000.0  1374.0      1
   9.91421984E0  1.46030709E-2 -5.06085765E-6 7.92682855E-10-4.62739645E-14    2
  -3.11167423E4  -2.86113215E1   1.30767163E0  2.92021742E-2 -1.19045617E-5    3
 6.52150087E-10 4.67751203E-13  -2.75328269E4   1.96395025E1                   4
! [_ SMILES="[CH2]C(C)=O" _]
ch3coch2          -thermH   5O   1C   3     G     300.0    5000.0  1391.0      1
   1.02303975E1  1.16494161E-2 -4.01005537E-6 6.25205246E-10-3.63784362E-14    2
  -8.44380462E3   -2.7919722E1   1.80339187E0  3.01407085E-2 -1.93505552E-5    3
  6.38199034E-9 -8.6610318E-13  -5.37233261E3   1.78046408E1                   4
! [_ CAS="123-38-6" _]
! [_ SMILES="CCC=O" _]
c2h5cho           -thermH   6O   1C   3     G     300.0    5000.0  1378.0      1
   1.02427695E1  1.39641989E-2 -4.76248001E-6 7.38105706E-10-4.27759503E-14    2
  -2.74143135E4  -2.85346843E1   2.16308444E0  2.95501264E-2 -1.52446252E-5    3
  3.49503947E-9-2.38896627E-13  -2.42260137E4   1.61153348E1                   4
! [_ SMILES="CC[C]=O" _]
c2h5co                  H   5O   1C   3     G     300.0    5000.0  1373.0      1
   9.87881997E0  1.17515676E-2 -4.00614923E-6 6.20850617E-10-3.59835225E-14    2
  -8.47292283E3  -2.49235196E1   2.93313946E0  2.47427911E-2 -1.21222003E-5    3
  2.34701048E-9-5.26843338E-14  -5.69663063E3   1.35958355E1                   4
! [_ SMILES="CC[O]" _]
c2h5o             -thermH   5O   1C   2     G     300.0    5000.0  1389.0      1
   7.87339772E0  1.13072907E-2 -3.84421421E-6 5.94414105E-10-3.43894538E-14    2
  -6.07274953E3   -1.7341679E1  4.94420708E-1  2.71774434E-2  -1.6590901E-5    3
    5.152042E-9-6.48496915E-13  -3.35252925E3   2.28079378E1                   4
! [_ SMILES="CO[O]" _]
ch3o2             -thermH   3O   2C   1     G     300.0    5000.0  1385.0      1
   5.95787891E0  7.90728626E-3 -2.68246234E-6 4.13891337E-10 -2.3900733E-14    2
  -1.53574838E3  -4.71963886E0   4.26146906E0  1.00873599E-2 -3.21506184E-6    3
 2.09409267E-10 4.18339103E-14  -6.84394259E2    5.1633032E0                   4
! [_ CAS="3031-73-0" _]
! [_ SMILES="COO" _]
ch3o2h            -thermH   4O   2C   1     G     300.0    5000.0  1390.0      1
   8.43117091E0  8.06817909E-3 -2.77094921E-6 4.31332243E-10-2.50692146E-14    2
  -1.96678771E4  -1.91170629E1   3.23442817E0  1.90129767E-2 -1.13386287E-5    3
  3.40306653E-9-4.11830222E-13  -1.77197926E4   9.25623949E0                   4
! [_ SMILES="CCOO" _]
c2h5o2h           -thermH   6O   2C   2     G     300.0    5000.0  1383.0      1
   1.19442992E1  1.26271597E-2 -4.41776755E-6 6.96327353E-10-4.08268961E-14    2
  -2.57408634E4  -3.73382394E1   1.29970294E0   3.6548842E-2 -2.52808875E-5    3
  9.19746803E-9-1.41362233E-12  -2.18866647E4   2.02719078E1                   4
! [_ SMILES="[CH]1CO1" _]
c2h3o1-2          -thermH   3O   1C   2     G     300.0    5000.0  1492.0      1
   6.88486471E0  6.94720501E-3 -2.23214698E-6 3.32190767E-10-1.87124555E-14    2
     1.264422E4   -1.2384257E1  -1.62965122E0  2.93455486E-2  -2.4373755E-5    3
  1.00522325E-8-1.61259036E-12   1.52459425E4   3.22782741E1                   4
! [_ CAS="13799-69-4" _]
! [_ SMILES="CC([O])=O" _]
ch3co2            -thermH   3O   2C   2     G     300.0    5000.0  1395.0      1
   8.54059736E0  8.32951214E-3  -2.8472201E-6 4.41927196E-10-2.56373394E-14    2
  -2.97290678E4  -2.03883545E1   1.37440768E0  2.49115604E-2 -1.74308894E-5    3
  6.24799508E-9-9.09516835E-13   -2.7233015E4   1.81405454E1                   4
! [_ CAS="75-21-8" _]
! [_ SMILES="C1CO1" _]
c2h4o1-2          -thermH   4O   1C   2     G     300.0    5000.0  1399.0      1
   6.99485763E0  1.00772459E-2 -3.45220932E-6 5.36571216E-10-3.11563543E-14    2
  -1.04091344E4  -1.59857976E1   -1.4436179E0  2.91837107E-2 -1.96805054E-5    3
  6.67472575E-9-9.02139342E-13  -7.43433507E3   2.95212453E1                   4
! [_ SMILES="[CH2]COO" _]
c2h4o2h           -thermH   5O   2C   2     G     300.0    5000.0  1416.0      1
   1.04141161E1  1.03535418E-2 -3.40802617E-6   5.153282E-10-2.93443242E-14    2
   9.20494999E2  -2.27319861E1   3.54721135E0  2.68422848E-2 -1.84606216E-5    3
  6.70875659E-9-9.95440617E-13   3.23432979E3   1.39436666E1                   4
! [_ SMILES="C=C[C]=O" _]
c2h3co            -thermH   3O   1C   3     G     300.0    5000.0  1402.0      1
   9.37467676E0    7.912969E-3  -2.6719828E-6  4.1111543E-10-2.36978981E-14    2
   1.92969514E3  -2.40892696E1   1.36242013E0  3.15273972E-2 -3.00218935E-5    3
  1.48167112E-8 -2.8797153E-12   4.25770215E3   1.72626546E1                   4
! [_ CAS="107-02-8" _]
! [_ SMILES="C=CC=O" _]
c2h3cho           -thermH   4O   1C   3     G     300.0    5000.0  1393.0      1
   1.04184959E1  9.48963321E-3 -3.29310529E-6 5.16279203E-10-3.01587291E-14    2
  -1.49630281E4  -3.07235061E1  2.92355162E-1  3.54321417E-2 -2.94936324E-5    3
  1.28100124E-8-2.26144108E-12  -1.16521584E4    2.2887828E1                   4
! [_ CAS="26397-33-1" _]
! [_ SMILES="[O]CC=C" _]
c3h5o             -thermH   5O   1C   3     G     300.0    5000.0  1380.0      1
   1.02551752E1   1.1498372E-2 -3.84645659E-6 5.88910346E-10-3.38557923E-14    2
    6.2656081E3  -2.77655042E1   1.19822582E0  3.05579837E-2 -1.80630276E-5    3
  4.86150033E-9-4.19854562E-13   9.58217784E3   2.15566221E1                   4
! [_ SMILES="CCC[O]" _]
nc3h7o            -thermH   7O   1C   3     G     300.0    5000.0  1390.0      1
   1.10130308E1  1.58110271E-2 -5.38743215E-6 8.34264825E-10-4.83147349E-14    2
  -1.01528968E4  -3.27511689E1  2.89706514E-1   3.9307556E-2 -2.48069355E-5    3
  8.07083573E-9 -1.0799829E-12  -6.24474269E3    2.5438781E1                   4
! [_ SMILES="CC(C)[O]" _]
ic3h7o            -thermH   7O   1C   3     G     300.0    5000.0  1395.0      1
   1.14592753E1  1.55902812E-2 -5.34443227E-6 8.30858106E-10-4.82455289E-14    2
  -1.24638531E4  -3.62203624E1 -1.00369576E-1  4.31118928E-2 -3.10631817E-5    3
  1.20668364E-8-1.97214967E-12  -8.44902998E3    2.5765001E1                   4
! [_ SMILES="CC(=O)C[O]" _]
ch3coch2o         -thermH   5O   2C   3     G     300.0    5000.0  1370.0      1
   1.14637586E1  1.32124342E-2 -4.56580495E-6 7.13897538E-10-4.16281047E-14    2
  -2.23833017E4  -3.15127868E1   3.72927689E0  2.63943697E-2 -1.09796486E-5    3
 8.58185303E-10  3.3947459E-13  -1.91551565E4   1.18505335E1                   4
! [_ SMILES="[CH2]C=C" _]
c3h5-a            -thermH   5C   3          G     300.0    5000.0  1397.0      1
   8.45883958E0  1.12695483E-2 -3.83792864E-6 5.94059119E-10 -3.4391803E-14    2
   1.63576092E4   -2.2580945E1 -5.29131958E-1    3.345591E-2 -2.53401027E-5    3
  1.02865754E-8 -1.7325834E-12   1.93834226E4   2.53067131E1                   4
! [_ CAS="6067-68-1" _]
! [_ SMILES="CC=[CH]" _]
c3h5-s            -thermH   5C   3          G     300.0    5000.0  1390.0      1
   7.88765879E0  1.13012591E-2  -3.8421313E-6 5.93982677E-10-3.43567175E-14    2
   2.82377716E4  -1.74291589E1   1.32807335E0  2.53107914E-2 -1.51530439E-5    3
  4.74345565E-9-6.24666084E-13   3.06873903E4   1.83328787E1                   4
! [_ SMILES="C[C]=C" _]
c3h5-t            -thermH   5C   3          G     300.0    5000.0  1382.0      1
   7.37492443E0  1.17510061E-2 -4.00021283E-6 6.18947395E-10-3.58215018E-14    2
   2.72874911E4  -1.43478655E1   2.17916644E0  2.03826623E-2 -7.91413834E-6    3
 4.76906187E-10 2.70398536E-13   2.94895338E4   1.48785684E1                   4
! [_ CAS="6401-87-2" _]
! [_ SMILES="[CH]=C=C" _]